<additional>
    <laneData id="lane_data" file="lane_data.xml" period="240"/>
</additional>
