<configuration>

<input>
 <net-file value="4wayint.net.xml"/>
 <route-files value="4wayint.rou.xml"/>
 <additional-files value="stoplight_phase.add.xml,stoplight_info.add.xml,edge.add.xml,lane.add.xml"/>
</input>
<time>
 <end value="3600"/>
</time>
<output>
 <summary-output value="summary_data.xml"/>
</output>
<report>
 <verbose value="true"/>
 <no-step-log value="true"/>
</report>

</configuration>
