<additional>
    <edgeData id="edge_data" file="edge_data.xml" period="240"/>
</additional>
